Version 4
SHEET 1 880 680
WIRE 128 176 -64 176
WIRE 256 176 192 176
WIRE 336 176 256 176
WIRE 464 176 400 176
WIRE 704 176 464 176
WIRE 256 208 256 176
WIRE 464 208 464 176
WIRE 704 256 704 176
WIRE -64 272 -64 256
WIRE 464 304 464 272
WIRE 256 368 256 272
WIRE 256 368 -48 368
WIRE 704 368 704 336
WIRE -48 464 -48 448
FLAG 704 368 0
FLAG 464 304 0
FLAG -48 464 0
FLAG -64 272 0
SYMBOL schottky 128 192 R270
WINDOW 0 32 32 VTop 2
WINDOW 3 0 32 VBottom 2
SYMATTR InstName D1
SYMATTR Value 1N5817
SYMATTR Description Diode
SYMATTR Type diode
SYMBOL schottky 336 192 R270
WINDOW 0 32 32 VTop 2
WINDOW 3 0 32 VBottom 2
SYMATTR InstName D2
SYMATTR Value 1N5817
SYMATTR Description Diode
SYMATTR Type diode
SYMBOL voltage -64 160 R0
WINDOW 123 0 0 Left 0
WINDOW 39 0 0 Left 0
SYMATTR InstName V1
SYMATTR Value 3.3
SYMBOL voltage -48 352 R0
WINDOW 123 0 0 Left 0
WINDOW 39 0 0 Left 0
SYMATTR InstName V2
SYMATTR Value PULSE(0 3.3 0 0 0 0.5u 1u)
SYMBOL res 688 240 R0
SYMATTR InstName R1
SYMATTR Value 1k
SYMBOL cap 240 208 R0
SYMATTR InstName C1
SYMATTR Value 1µ
SYMBOL cap 448 208 R0
SYMATTR InstName C2
SYMATTR Value 1µ
TEXT 576 64 Left 2 !.tran 0 10m 0 1u startup
