Version 4
SHEET 1 1672 820
WIRE 128 176 -64 176
WIRE 256 176 192 176
WIRE 336 176 256 176
WIRE 464 176 400 176
WIRE 704 176 464 176
WIRE 256 208 256 176
WIRE 464 208 464 176
WIRE 704 256 704 176
WIRE -64 272 -64 256
WIRE 464 304 464 272
WIRE 256 368 256 272
WIRE 256 368 -48 368
WIRE 704 368 704 336
WIRE -48 464 -48 448
WIRE 368 592 -32 592
WIRE 512 592 432 592
WIRE 624 592 512 592
WIRE 800 592 688 592
WIRE 1024 592 800 592
WIRE 800 624 800 592
WIRE 512 640 512 592
WIRE -32 656 -32 592
WIRE 1024 672 1024 592
WIRE 512 704 336 704
WIRE 800 704 800 688
WIRE 800 704 512 704
WIRE -32 752 -32 736
WIRE 1024 784 1024 752
WIRE 336 800 336 704
FLAG 704 368 0
FLAG 464 304 0
FLAG -48 464 0
FLAG -64 272 0
FLAG -32 752 0
FLAG 1024 784 0
FLAG 336 800 0
SYMBOL schottky 128 192 R270
WINDOW 0 32 32 VTop 2
WINDOW 3 0 32 VBottom 2
SYMATTR InstName D1
SYMATTR Value 1N5817
SYMATTR Description Diode
SYMATTR Type diode
SYMBOL schottky 336 192 R270
WINDOW 0 32 32 VTop 2
WINDOW 3 0 32 VBottom 2
SYMATTR InstName D2
SYMATTR Value 1N5817
SYMATTR Description Diode
SYMATTR Type diode
SYMBOL voltage -64 160 R0
WINDOW 123 0 0 Left 0
WINDOW 39 0 0 Left 0
SYMATTR InstName V1
SYMATTR Value 3.3
SYMBOL voltage -48 352 R0
WINDOW 123 0 0 Left 0
WINDOW 39 0 0 Left 0
SYMATTR InstName V2
SYMATTR Value PULSE(0 3.3 0 0 0 0.5u 1u)
SYMBOL res 688 240 R0
SYMATTR InstName R1
SYMATTR Value 1k
SYMBOL cap 240 208 R0
SYMATTR InstName C1
SYMATTR Value 1µ
SYMBOL cap 448 208 R0
SYMATTR InstName C2
SYMATTR Value 1µ
SYMBOL voltage -32 640 R0
WINDOW 123 0 0 Left 0
WINDOW 39 0 0 Left 0
SYMATTR InstName V3
SYMATTR Value PULSE(0 12 0 0 0 0.5u 1u)
SYMBOL schottky 688 576 R90
WINDOW 0 0 32 VBottom 2
WINDOW 3 32 32 VTop 2
SYMATTR InstName D3
SYMATTR Value 1N5817
SYMATTR Description Diode
SYMATTR Type diode
SYMBOL schottky 496 640 R0
SYMATTR InstName D4
SYMATTR Value 1N5817
SYMATTR Description Diode
SYMATTR Type diode
SYMBOL cap 432 576 R90
WINDOW 0 0 32 VBottom 2
WINDOW 3 32 32 VTop 2
SYMATTR InstName C3
SYMATTR Value 1µ
SYMBOL cap 816 688 R180
WINDOW 0 24 56 Left 2
WINDOW 3 24 8 Left 2
SYMATTR InstName C4
SYMATTR Value 1µ
SYMBOL res 1008 656 R0
SYMATTR InstName R2
SYMATTR Value 500
TEXT 576 64 Left 2 !.tran 0 10m 0 1u startup
