Version 4
SHEET 1 1908 1044
WIRE -1264 -1072 -1392 -1072
WIRE -1056 -1072 -1184 -1072
WIRE -1392 -992 -1392 -1072
WIRE -1344 -992 -1392 -992
WIRE -1200 -992 -1280 -992
WIRE -1264 -880 -1264 -896
WIRE -1536 -864 -1648 -864
WIRE -1504 -864 -1536 -864
WIRE -1392 -864 -1392 -992
WIRE -1392 -864 -1424 -864
WIRE -1296 -864 -1392 -864
WIRE -1200 -848 -1200 -992
WIRE -1200 -848 -1232 -848
WIRE -1056 -848 -1056 -1072
WIRE -1056 -848 -1136 -848
WIRE -1024 -848 -1056 -848
WIRE -912 -848 -944 -848
WIRE -832 -848 -912 -848
WIRE -704 -848 -752 -848
WIRE -1296 -832 -1312 -832
WIRE -1312 -800 -1312 -832
WIRE -1264 -800 -1264 -816
WIRE -1648 -720 -1648 -784
WIRE -800 -720 -800 -736
WIRE -1536 -704 -1536 -864
WIRE -1024 -704 -1536 -704
WIRE -912 -704 -912 -848
WIRE -912 -704 -944 -704
WIRE -832 -704 -912 -704
WIRE -704 -688 -704 -848
WIRE -704 -688 -768 -688
WIRE -656 -688 -704 -688
WIRE -512 -688 -576 -688
WIRE -432 -688 -512 -688
WIRE -832 -672 -848 -672
WIRE -848 -640 -848 -672
WIRE -800 -640 -800 -656
WIRE -512 -592 -512 -624
WIRE -432 -592 -432 -608
WIRE -432 -592 -512 -592
WIRE -432 -576 -432 -592
WIRE 1008 -464 880 -464
WIRE 1216 -464 1088 -464
WIRE 880 -384 880 -464
WIRE 928 -384 880 -384
WIRE 1072 -384 992 -384
WIRE 432 -288 432 -304
WIRE 400 -272 304 -272
WIRE 1008 -272 1008 -288
WIRE 560 -256 464 -256
WIRE 736 -256 560 -256
WIRE 768 -256 736 -256
WIRE 880 -256 880 -384
WIRE 880 -256 848 -256
WIRE 976 -256 880 -256
WIRE -960 -240 -976 -240
WIRE -880 -240 -960 -240
WIRE -736 -240 -800 -240
WIRE -608 -240 -672 -240
WIRE -544 -240 -608 -240
WIRE -384 -240 -480 -240
WIRE 400 -240 368 -240
WIRE 1072 -240 1072 -384
WIRE 1072 -240 1040 -240
WIRE 1216 -240 1216 -464
WIRE 1216 -240 1136 -240
WIRE 1248 -240 1216 -240
WIRE 1360 -240 1328 -240
WIRE 1440 -240 1360 -240
WIRE 1568 -240 1520 -240
WIRE 976 -224 960 -224
WIRE 432 -208 432 -224
WIRE 560 -192 560 -256
WIRE 960 -192 960 -224
WIRE 1008 -192 1008 -208
WIRE -976 -160 -976 -240
WIRE -1280 -144 -1280 -176
WIRE -608 -144 -608 -240
WIRE 1472 -112 1472 -128
WIRE 368 -96 368 -240
WIRE 560 -96 560 -112
WIRE 560 -96 368 -96
WIRE 736 -96 736 -256
WIRE 1248 -96 736 -96
WIRE 1360 -96 1360 -240
WIRE 1360 -96 1328 -96
WIRE 1440 -96 1360 -96
WIRE 1568 -80 1568 -240
WIRE 1568 -80 1504 -80
WIRE 1616 -80 1568 -80
WIRE 1760 -80 1696 -80
WIRE 1840 -80 1760 -80
WIRE 560 -64 560 -96
WIRE 1440 -64 1424 -64
WIRE -1280 -32 -1280 -64
WIRE 1424 -32 1424 -64
WIRE 1472 -32 1472 -48
WIRE -976 0 -976 -80
WIRE -752 0 -976 0
WIRE -608 0 -608 -64
WIRE -608 0 -752 0
WIRE -384 0 -384 -64
WIRE -384 0 -608 0
WIRE 1760 16 1760 -16
WIRE 1840 16 1840 0
WIRE 1840 16 1760 16
WIRE 1840 32 1840 16
WIRE 560 48 560 16
FLAG -752 0 0
FLAG -1280 -32 0
FLAG -1280 -176 15V
FLAG 1008 -288 15V
FLAG 1008 -192 0
FLAG 960 -192 0
FLAG 1840 32 0
FLAG 1472 -128 15V
FLAG 1472 -32 0
FLAG 1424 -32 0
FLAG -960 -240 S1
FLAG -384 -240 S2
FLAG -1264 -896 15V
FLAG -1264 -800 0
FLAG -1312 -800 0
FLAG -1648 -720 0
FLAG -432 -576 0
FLAG -800 -736 15V
FLAG -800 -640 0
FLAG -848 -640 0
FLAG 432 -208 15V
FLAG 432 -304 0
FLAG 304 -272 S2
FLAG 560 48 0
SYMBOL res -784 -256 R90
WINDOW 0 0 56 VBottom 2
WINDOW 3 32 56 VTop 2
SYMATTR InstName R2
SYMATTR Value 5
SYMBOL cap -672 -256 R90
WINDOW 0 0 32 VBottom 2
WINDOW 3 32 32 VTop 2
SYMATTR InstName C1
SYMATTR Value 100n
SYMBOL cap -480 -256 R90
WINDOW 0 0 32 VBottom 2
WINDOW 3 32 32 VTop 2
SYMATTR InstName C2
SYMATTR Value 100n
SYMBOL voltage -976 -176 R0
WINDOW 123 0 0 Left 0
WINDOW 39 0 0 Left 0
SYMATTR InstName V1
SYMATTR Value SINE(1 1 1k)
SYMBOL voltage -608 -160 R0
WINDOW 123 0 0 Left 0
WINDOW 39 24 124 Left 2
SYMATTR SpiceLine Rser=0.5
SYMATTR InstName V2
SYMATTR Value 4
SYMBOL voltage -1280 -160 R0
WINDOW 123 0 0 Left 0
WINDOW 39 0 0 Left 0
SYMATTR InstName V3
SYMATTR Value 15
SYMBOL Opamps\\OP07 1008 -304 R0
SYMATTR InstName U4
SYMBOL schottky 1136 -256 R90
WINDOW 0 0 32 VBottom 2
WINDOW 3 32 32 VTop 2
SYMATTR InstName D4
SYMATTR Value 1N5817
SYMATTR Description Diode
SYMATTR Type diode
SYMBOL schottky 992 -400 R90
WINDOW 0 0 32 VBottom 2
WINDOW 3 32 32 VTop 2
SYMATTR InstName D5
SYMATTR Value 1N5817
SYMATTR Description Diode
SYMATTR Type diode
SYMBOL res 1104 -480 R90
WINDOW 0 0 56 VBottom 2
WINDOW 3 32 56 VTop 2
SYMATTR InstName R10
SYMATTR Value 10k
SYMBOL res 1824 -96 R0
SYMATTR InstName R11
SYMATTR Value 50k
SYMBOL res 864 -272 R90
WINDOW 0 0 56 VBottom 2
WINDOW 3 32 56 VTop 2
SYMATTR InstName R12
SYMATTR Value 10k
SYMBOL Opamps\\OP07 1472 -144 R0
SYMATTR InstName U5
SYMBOL res 1344 -256 R90
WINDOW 0 0 56 VBottom 2
WINDOW 3 32 56 VTop 2
SYMATTR InstName R13
SYMATTR Value 5k
SYMBOL res 1536 -256 R90
WINDOW 0 0 56 VBottom 2
WINDOW 3 32 56 VTop 2
SYMATTR InstName R14
SYMATTR Value 10k
SYMBOL res 1344 -112 R90
WINDOW 0 0 56 VBottom 2
WINDOW 3 32 56 VTop 2
SYMATTR InstName R15
SYMATTR Value 10k
SYMBOL cap 1744 -80 R0
SYMATTR InstName C4
SYMATTR Value 4.7µ
SYMBOL res 1712 -96 R90
WINDOW 0 0 56 VBottom 2
WINDOW 3 32 56 VTop 2
SYMATTR InstName R16
SYMATTR Value 1k
SYMBOL Opamps\\OP07 -1264 -912 R0
SYMATTR InstName U6
SYMBOL schottky -1136 -864 R90
WINDOW 0 0 32 VBottom 2
WINDOW 3 32 32 VTop 2
SYMATTR InstName D6
SYMATTR Value 1N5817
SYMATTR Description Diode
SYMATTR Type diode
SYMBOL schottky -1280 -1008 R90
WINDOW 0 0 32 VBottom 2
WINDOW 3 32 32 VTop 2
SYMATTR InstName D7
SYMATTR Value 1N5817
SYMATTR Description Diode
SYMATTR Type diode
SYMBOL res -1168 -1088 R90
WINDOW 0 0 56 VBottom 2
WINDOW 3 32 56 VTop 2
SYMATTR InstName R9
SYMATTR Value 10k
SYMBOL voltage -1648 -880 R0
WINDOW 0 53 57 Left 2
WINDOW 123 0 0 Left 0
WINDOW 39 0 0 Left 0
SYMATTR InstName V6
SYMATTR Value SINE(0 1 1k)
SYMBOL res -448 -704 R0
SYMATTR InstName R17
SYMATTR Value 50k
SYMBOL res -1408 -880 R90
WINDOW 0 0 56 VBottom 2
WINDOW 3 32 56 VTop 2
SYMATTR InstName R18
SYMATTR Value 10k
SYMBOL Opamps\\OP07 -800 -752 R0
SYMATTR InstName U7
SYMBOL res -928 -864 R90
WINDOW 0 0 56 VBottom 2
WINDOW 3 32 56 VTop 2
SYMATTR InstName R19
SYMATTR Value 5k
SYMBOL res -736 -864 R90
WINDOW 0 0 56 VBottom 2
WINDOW 3 32 56 VTop 2
SYMATTR InstName R20
SYMATTR Value 10k
SYMBOL res -928 -720 R90
WINDOW 0 0 56 VBottom 2
WINDOW 3 32 56 VTop 2
SYMATTR InstName R21
SYMATTR Value 10k
SYMBOL cap -528 -688 R0
SYMATTR InstName C5
SYMATTR Value 4.7µ
SYMBOL res -560 -704 R90
WINDOW 0 0 56 VBottom 2
WINDOW 3 32 56 VTop 2
SYMATTR InstName R22
SYMATTR Value 1k
SYMBOL Opamps\\OP07 432 -192 M180
SYMATTR InstName U8
SYMBOL res 576 -96 R180
WINDOW 0 36 76 Left 2
WINDOW 3 36 40 Left 2
SYMATTR InstName R23
SYMATTR Value 10k
SYMBOL res 576 32 R180
WINDOW 0 36 76 Left 2
WINDOW 3 36 40 Left 2
SYMATTR InstName R24
SYMATTR Value 100k
SYMBOL res -368 -48 R180
WINDOW 0 36 76 Left 2
WINDOW 3 36 40 Left 2
SYMATTR InstName R25
SYMATTR Value 10k
TEXT -1304 216 Left 2 !.tran 0 100m 0 1u
