Version 4
SHEET 1 880 680
WIRE -80 64 -176 64
WIRE 64 64 0 64
WIRE 192 64 128 64
WIRE 256 64 192 64
WIRE 416 64 320 64
WIRE 416 128 416 64
WIRE -176 144 -176 64
WIRE 192 160 192 64
WIRE -176 304 -176 224
WIRE 48 304 -176 304
WIRE 192 304 192 240
WIRE 192 304 48 304
WIRE 416 304 416 208
WIRE 416 304 192 304
FLAG 48 304 0
SYMBOL res 16 48 R90
WINDOW 0 0 56 VBottom 2
WINDOW 3 32 56 VTop 2
SYMATTR InstName R2
SYMATTR Value 5
SYMBOL cap 128 48 R90
WINDOW 0 0 32 VBottom 2
WINDOW 3 32 32 VTop 2
SYMATTR InstName C1
SYMATTR Value 1µ
SYMBOL cap 320 48 R90
WINDOW 0 0 32 VBottom 2
WINDOW 3 32 32 VTop 2
SYMATTR InstName C2
SYMATTR Value 1µ
SYMBOL voltage -176 128 R0
WINDOW 123 0 0 Left 0
WINDOW 39 0 0 Left 0
SYMATTR InstName V1
SYMATTR Value SINE(0 1 1k)
SYMBOL voltage 192 144 R0
WINDOW 123 0 0 Left 0
WINDOW 39 24 124 Left 2
SYMATTR InstName V2
SYMATTR Value 4
SYMATTR SpiceLine Rser=0.5
SYMBOL res 400 112 R0
SYMATTR InstName R1
SYMATTR Value 10k
TEXT 606 200 Left 2 !.tran 0 100m 0 1u
