Version 4
SHEET 1 1888 680
WIRE 992 -496 864 -496
WIRE 1200 -496 1072 -496
WIRE 864 -416 864 -496
WIRE 912 -416 864 -416
WIRE 1056 -416 976 -416
WIRE 992 -304 992 -320
WIRE 720 -288 608 -288
WIRE 752 -288 720 -288
WIRE 864 -288 864 -416
WIRE 864 -288 832 -288
WIRE 960 -288 864 -288
WIRE 1056 -272 1056 -416
WIRE 1056 -272 1024 -272
WIRE 1200 -272 1200 -496
WIRE 1200 -272 1120 -272
WIRE 1232 -272 1200 -272
WIRE 1344 -272 1312 -272
WIRE 1424 -272 1344 -272
WIRE 1552 -272 1504 -272
WIRE 960 -256 944 -256
WIRE 944 -224 944 -256
WIRE 992 -224 992 -240
WIRE -800 -176 -800 -192
WIRE -608 -160 -608 -176
WIRE -608 -160 -768 -160
WIRE -912 -144 -944 -144
WIRE -832 -144 -848 -144
WIRE -608 -144 -608 -160
WIRE 608 -144 608 -208
WIRE 1456 -144 1456 -160
WIRE -736 -128 -768 -128
WIRE 720 -128 720 -288
WIRE 1232 -128 720 -128
WIRE 1344 -128 1344 -272
WIRE 1344 -128 1312 -128
WIRE 1424 -128 1344 -128
WIRE 1552 -112 1552 -272
WIRE 1552 -112 1488 -112
WIRE 1600 -112 1552 -112
WIRE 1744 -112 1680 -112
WIRE 1824 -112 1744 -112
WIRE -800 -96 -800 -112
WIRE 1424 -96 1408 -96
WIRE 1408 -64 1408 -96
WIRE 1456 -64 1456 -80
WIRE -608 -32 -608 -64
WIRE 1744 -16 1744 -48
WIRE 1824 -16 1824 -32
WIRE 1824 -16 1744 -16
WIRE -944 0 -944 -144
WIRE -736 0 -736 -128
WIRE -736 0 -944 0
WIRE 1824 0 1824 -16
WIRE -80 64 -176 64
WIRE 64 64 0 64
WIRE 192 64 128 64
WIRE 256 64 192 64
WIRE 416 64 320 64
WIRE -176 144 -176 64
WIRE 192 160 192 64
WIRE -176 304 -176 224
WIRE 48 304 -176 304
WIRE 192 304 192 240
WIRE 192 304 48 304
WIRE 416 304 192 304
FLAG 48 304 0
FLAG -608 -32 0
FLAG -608 -176 15V
FLAG 992 -320 15V
FLAG 992 -224 0
FLAG 944 -224 0
FLAG 608 -144 0
FLAG 1824 0 0
FLAG -800 -96 15V
FLAG -800 -192 0
FLAG 1456 -160 15V
FLAG 1456 -64 0
FLAG 1408 -64 0
SYMBOL res 16 48 R90
WINDOW 0 0 56 VBottom 2
WINDOW 3 32 56 VTop 2
SYMATTR InstName R2
SYMATTR Value 5
SYMBOL cap 128 48 R90
WINDOW 0 0 32 VBottom 2
WINDOW 3 32 32 VTop 2
SYMATTR InstName C1
SYMATTR Value 1µ
SYMBOL cap 320 48 R90
WINDOW 0 0 32 VBottom 2
WINDOW 3 32 32 VTop 2
SYMATTR InstName C2
SYMATTR Value 1µ
SYMBOL voltage -176 128 R0
WINDOW 123 0 0 Left 0
WINDOW 39 0 0 Left 0
SYMATTR InstName V1
SYMATTR Value SINE(0 1 1k)
SYMBOL voltage 192 144 R0
WINDOW 123 0 0 Left 0
WINDOW 39 24 124 Left 2
SYMATTR SpiceLine Rser=0.5
SYMATTR InstName V2
SYMATTR Value 4
SYMBOL Opamps\\OP07 992 -336 R0
SYMATTR InstName U1
SYMBOL diode 1120 -288 R90
WINDOW 0 0 32 VBottom 2
WINDOW 3 32 32 VTop 2
SYMATTR InstName D1
SYMBOL diode 976 -432 R90
WINDOW 0 0 32 VBottom 2
WINDOW 3 32 32 VTop 2
SYMATTR InstName D2
SYMBOL res 1088 -512 R90
WINDOW 0 0 56 VBottom 2
WINDOW 3 32 56 VTop 2
SYMATTR InstName R1
SYMATTR Value 10k
SYMBOL voltage -608 -160 R0
WINDOW 123 0 0 Left 0
WINDOW 39 0 0 Left 0
SYMATTR InstName V3
SYMATTR Value 15
SYMBOL voltage 608 -304 R0
WINDOW 0 53 57 Left 2
WINDOW 123 0 0 Left 0
WINDOW 39 0 0 Left 0
SYMATTR InstName V4
SYMATTR Value SINE(0 1 1k)
SYMBOL res 1808 -128 R0
SYMATTR InstName R3
SYMATTR Value 50k
SYMBOL res 848 -304 R90
WINDOW 0 0 56 VBottom 2
WINDOW 3 32 56 VTop 2
SYMATTR InstName R4
SYMATTR Value 10k
SYMBOL Opamps\\OP07 -800 -80 R180
SYMATTR InstName U2
SYMBOL diode -848 -160 R90
WINDOW 0 0 32 VBottom 2
WINDOW 3 32 32 VTop 2
SYMATTR InstName D3
SYMBOL Opamps\\OP07 1456 -176 R0
SYMATTR InstName U3
SYMBOL res 1328 -288 R90
WINDOW 0 0 56 VBottom 2
WINDOW 3 32 56 VTop 2
SYMATTR InstName R5
SYMATTR Value 10k
SYMBOL res 1520 -288 R90
WINDOW 0 0 56 VBottom 2
WINDOW 3 32 56 VTop 2
SYMATTR InstName R6
SYMATTR Value 10k
SYMBOL res 1328 -144 R90
WINDOW 0 0 56 VBottom 2
WINDOW 3 32 56 VTop 2
SYMATTR InstName R7
SYMATTR Value 10k
SYMBOL cap 1728 -112 R0
SYMATTR InstName C3
SYMATTR Value 220µ
SYMBOL res 1696 -128 R90
WINDOW 0 0 56 VBottom 2
WINDOW 3 32 56 VTop 2
SYMATTR InstName R8
SYMATTR Value 1
TEXT 608 200 Left 2 !.tran 0 100m 0 1u
